12
Coordinates from ORCA-job .\benzene
  C   -3.02265360268310      0.45818679803882      0.00000000000001
  C   -3.07155203496014     -0.92635136223778     -0.00000000000000
  C   -1.79918280819600      1.10810911679074      0.00000000000001
  C   -0.62458262257470      0.37349082380264     -0.00000000000000
  C   -0.67347190401708     -1.01102707462282     -0.00000000000000
  C   -1.89696966346113     -1.66094395307227      0.00000000000001
  H   -3.93457603893802      1.02856132945772     -0.00000000000002
  H   -4.02146618729634     -1.43091967108172      0.00000000000002
  H   -1.76119762243945      2.18304280125479     -0.00000000000001
  H   0.32531199539629      0.87809843072064      0.00000000000002
  H   0.23847015763764     -1.58136646287437     -0.00000000000002
  H   -1.93492966846797     -2.73588077617639     -0.00000000000000
