10
Cyclopentadiene
  C   -2.90334049906417     -0.19691506358504     -0.14483931737814
  C   -2.45259607735411     -1.51438011068250      0.04487348170714
  C   -1.77649557941933      0.63476009116499     -0.26186416972464
  C   -1.04744906444035     -1.49700379762146      0.04486860278025
  C   -0.62943097440181     -0.16879209888143     -0.14485091119574
  H   -1.78968439003199      1.70151235690963     -0.41470141417297
  H   -3.93231280633640      0.11989414649185     -0.19213051777893
  H   -3.07533784079080     -2.38523009432602      0.16856824507690
  H   -0.40335498778861     -2.35218191445932      0.16855812899061
  H   0.39139221962757      0.17336648498930     -0.19215212830449
