26
Pyrene
  C   -3.87294266279263      1.66823050293385     -0.10900895404549
  C   -3.84298912387942      0.29027212542290      0.01719722699276
  C   -2.69092335296710      2.39584761246093     -0.20206640697970
  C   -1.45754599298718      1.71300879742097     -0.16639780011759
  C   -1.43354402409424      0.30886901229664     -0.03764966009005
  C   -2.63562513246486     -0.38544980530366      0.05278444905807
  C   -0.23040096450704      2.44490812072847     -0.26084389487807
  C   1.00297639711360      1.76206932004767     -0.22517521084448
  C   0.99432846259918      0.32226722592750     -0.09242411710343
  C   -0.15316620083129     -0.36212657939154     -0.00410763721682
  H   -4.81612333003837      2.18517753135163     -0.13580386465784
  H   -2.62190571603016     -1.45675029144810      0.15111513951256
  H   -4.76456208142997     -0.25937645288337      0.08812584152415
  H   1.93849942184951     -0.19281919381247     -0.06582240262138
  H   -0.14156312110356     -1.43341919773092      0.09426889623540
  C   -2.68227538735778      3.83564967099526     -0.33481776224497
  C   -1.53478073236359      4.52004349229477     -0.42313420044577
  C   -0.25440290456532      3.84904792602553     -0.38959200618174
  H   -3.62644634907927      4.35073609306282     -0.36141968864831
  H   -1.54638379644730      5.59133609685898     -0.52151091192779
  C   0.94767822932068      4.54336674192542     -0.48002574948392
  C   2.15504222621699      3.86764481109529     -0.44443834634710
  C   2.18499573368731      2.48968641801958     -0.31823245743365
  H   0.93395881093206      5.61466723456738     -0.57835630130807
  H   3.07661519593174      4.41729341442516     -0.51536666325423
  H   3.12817639528800      1.97273937270931     -0.29143751749254
