10
Coordinates from ORCA-job .\butadiene
  C   -2.04984242120640     -1.06647310052569      0.00000000000059
  C   -0.97434259061739     -0.29816864614854     -0.00000000000609
  C   0.40110945770274     -0.80904573759371     -0.00000000000605
  C   1.47660795004564     -0.04073875447662      0.00000000000063
  H   0.51337209076646     -1.88180947205388     -0.00000000000491
  H   1.40365588271861      1.03405164793860      0.00000000000354
  H   2.46675199207775     -0.46020258923167      0.00000000000683
  H   -3.03998837301712     -0.64701465618050      0.00000000000688
  H   -1.97688494556947     -2.14126366452067      0.00000000000353
  H   -1.08660904290082      0.77459497279270     -0.00000000000493
